6
 g-Tensor orientation as XYZ file; He=chosen origin Ne=g1 Ar=g2 Kr=g3
O        0.000000000      0.000000000      0.000000000
H        0.000000000      0.000000000      1.100000000
He       0.000000000      0.000000000      0.000000000
Ne      -0.686655666      0.398206180      0.000000000
Ar       0.398206180      0.686655666      0.000000000
Kr      -0.000000000      0.000000000     -0.793765812
